138
Generated by autodE on: 2022-03-19. E = -3944.863365 Ha
C    27.99614 -19.62787 -15.31574
C    27.62748 -20.73216 -16.33603
C    28.79052 -20.99948 -17.29192
C    29.16385 -19.67643 -17.94456
C    29.46721 -18.59353 -16.90118
C    29.67700 -17.23630 -17.59636
O    27.19353 -21.94866 -15.73737
O    28.33663 -21.96116 -18.21961
O    30.29255 -19.84272 -18.81096
O    28.33376 -18.45733 -16.02577
H    27.10636 -19.36413 -14.70107
H    26.78948 -20.30503 -16.93773
H    29.66814 -21.36522 -16.70422
H    28.29185 -19.33297 -18.54694
H    30.35246 -18.86249 -16.28921
H    27.15872 -22.57421 -16.49588
H    29.08011 -22.20066 -18.83223
C    31.35103 -21.39042 -12.45142
C    30.53088 -22.64055 -12.75228
C    29.39006 -22.27597 -13.69923
C    28.78515 -20.87453 -13.39480
C    29.22811 -20.26681 -12.05722
C    28.37438 -20.80813 -10.90054
O    31.39498 -23.62057 -13.32604
O    28.44583 -23.32264 -13.64750
O    29.08828 -19.96209 -14.47081
O    30.62254 -20.43956 -11.72823
O    27.04440 -20.38449 -11.14454
H    32.23830 -21.64107 -11.83101
H    30.10939 -23.01882 -11.79394
H    29.85992 -22.18312 -14.70537
H    27.68449 -20.98746 -13.30993
H    29.05069 -19.17193 -12.11438
H    28.45747 -21.92027 -10.84995
H    28.79457 -20.39607  -9.95339
H    30.82584 -24.35875 -13.62199
H    27.79266 -23.08419 -14.34549
H    26.46101 -20.79884 -10.48396
C    35.39957 -19.48457 -15.29324
C    35.27780 -20.98808 -14.98944
C    33.83468 -21.45400 -14.80009
C    33.13814 -20.49262 -13.83308
C    33.23305 -19.07729 -14.39850
C    32.39177 -18.02556 -13.66411
O    35.93443 -21.72210 -16.01748
O    33.89472 -22.78524 -14.34973
O    31.77635 -20.86417 -13.70510
O    34.62825 -18.69472 -14.42974
O    31.11422 -17.88640 -14.25960
H    36.45166 -19.16766 -15.14332
H    35.78950 -21.14772 -14.01034
H    33.30167 -21.37305 -15.78316
H    33.64423 -20.52387 -12.84026
H    32.83815 -19.09728 -15.43387
H    32.32352 -18.26168 -12.57745
H    32.91024 -17.04905 -13.76186
H    35.77644 -22.66828 -15.82011
H    30.59090 -18.70826 -14.11182
C    36.93331 -17.30926 -19.87692
C    37.73164 -18.42205 -19.15559
C    36.79569 -19.33086 -18.35665
C    35.99982 -18.44889 -17.40582
C    35.26905 -17.32455 -18.15108
C    34.61628 -16.36638 -17.13862
O    38.54875 -19.19858 -20.02502
O    37.61248 -20.26555 -17.68623
O    35.05367 -19.23024 -16.66617
O    36.22617 -16.56517 -18.91015
H    37.63238 -16.59119 -20.36120
H    38.38436 -17.88620 -18.42522
H    36.08117 -19.82561 -19.05947
H    36.71558 -17.97573 -16.69529
H    34.51000 -17.73212 -18.85005
H    38.85237 -19.93804 -19.45177
H    37.03665 -20.90252 -17.18813
C    34.31544 -19.37548 -23.25359
C    35.54274 -20.28108 -23.23899
C    36.52133 -19.78387 -22.17742
C    36.56456 -18.23071 -22.08464
C    35.87550 -17.50681 -23.24786
C    36.81598 -17.40376 -24.45808
O    35.11574 -21.61680 -22.97440
O    37.77558 -20.36854 -22.45157
O    35.99926 -17.79604 -20.83053
O    34.62054 -18.07644 -23.67573
O    37.90938 -16.59811 -24.05338
H    33.54975 -19.76155 -23.96047
H    36.02535 -20.22782 -24.24076
H    36.10250 -20.12588 -21.20322
H    37.62724 -17.91570 -22.13712
H    35.65346 -16.47116 -22.91339
H    37.14282 -18.42236 -24.77697
H    36.23417 -16.95704 -25.29789
H    35.92463 -22.15331 -22.85541
H    38.33475 -20.09541 -21.68807
H    38.57539 -16.60035 -24.76389
C    29.99512 -19.85028 -20.21845
C    30.63872 -21.07778 -20.88627
C    32.14096 -20.92430 -21.11924
C    32.39300 -19.56496 -21.77772
C    31.81934 -18.47342 -20.87652
C    32.18648 -17.03785 -21.27444
O    30.34626 -22.23485 -20.11011
O    32.54484 -22.02707 -21.89327
O    33.78869 -19.37290 -21.93042
O    30.38325 -18.64398 -20.81657
O    33.35166 -16.60125 -20.59777
H    28.89370 -19.91106 -20.33235
H    30.17196 -21.15915 -21.89691
H    32.65708 -20.90544 -20.12418
H    31.88396 -19.52654 -22.76876
H    32.24257 -18.61181 -19.86140
H    32.28550 -16.94635 -22.38030
H    31.35300 -16.37602 -20.95920
H    30.83023 -22.97455 -20.53197
H    33.49892 -21.91786 -22.14493
H    34.13240 -17.10203 -20.93061
C    31.13389 -15.22122 -17.20372
C    32.51745 -14.97509 -17.08740
N    30.97967 -16.60096 -17.39723
N    33.16555 -16.20838 -17.24121
C    32.21879 -17.17710 -17.42318
H    35.05431 -15.36927 -17.32557
H    34.86260 -16.66655 -16.09795
H    28.92480 -16.54927 -17.16795
H    29.49012 -17.31999 -18.68801
H    32.97879 -23.09666 -14.12726
C    33.01650 -13.68731 -16.86332
C    30.19559 -14.18689 -17.11848
N    32.46507 -18.48238 -17.59945
H    31.72856 -19.09975 -17.98562
C    32.07711 -12.64706 -16.77315
C    30.69338 -12.89215 -16.89785
H    32.43078 -11.62007 -16.60176
H    34.09225 -13.48876 -16.76213
H    29.98672 -12.05316 -16.82093
H    29.11678 -14.36916 -17.21745
H    33.39302 -18.87188 -17.35713
