! Freq PBE0 def2-SVP def2/J RIJCOSX D4
%output 
xyzfile=True 
end 
%scf 
maxiter 250 
end
%output
Print[P_Hirshfeld] = 1
end
% maxcore
4000
%pal nprocs 36
end
*xyz 0 1
C   28.24444684  -19.22401021 -16.17495160
C   27.55657231  -20.30062815 -17.03204978
C   28.42564091  -20.69094172 -18.22281529
C   28.85158904  -19.44816324 -19.02060458
C   29.55322009  -18.48959127 -18.04063331
C   30.10439791  -17.19055411 -18.64850562
O   27.26509668  -21.46841876 -16.26037763
O   27.68445321  -21.63660752 -18.97422852
O   29.75955819  -19.83860640 -20.04106270
O   28.59761941  -18.14394909 -17.01913073
H   27.57073859  -18.80508931 -15.40013771
H   26.60681538  -19.85963941 -17.41668232
H   29.36225257  -21.15008753 -17.82658228
H   27.95867063  -18.94394323 -19.45983255
H   30.40878503  -19.03305620 -17.58336870
H   26.99506830  -22.12687163 -16.94030192
H   28.32637241  -22.14762493 -19.53438380
C   31.64809444  -20.94356262 -12.54385965
C   30.87453892  -22.09909253 -13.17769876
C   30.22315924  -21.59988160 -14.46125547
C   29.43533122  -20.29200797 -14.27963327
C   30.08307724  -19.28749949 -13.29199927
C   29.08222691  -18.31306524 -12.66326975
O   31.78082293  -23.16597621 -13.46721575
O   29.44490152  -22.65417310 -14.99252944
O   29.43118564  -19.70889777 -15.59066044
O   30.72883953  -19.93000776 -12.16056034
O   28.32390971  -17.61902424 -13.63298805
H   32.17143892  -21.26105951 -11.61461543
H   30.09133326  -22.43630035 -12.46037657
H   31.06192466  -21.33757951 -15.14841254
H   28.40099592  -20.53803744 -13.95134890
H   30.84923874  -18.71845190 -13.86171200
H   28.37031604  -18.88560624 -12.03144701
H   29.64424194  -17.62181059 -11.99332159
H   31.29878864  -23.75099340 -14.08827134
H   28.70356247  -22.25741721 -15.52161130
H   28.95889587  -17.07654526 -14.15161830
C   36.28565652  -19.25313181 -14.50570016
C   36.14803850  -20.75766030 -14.20561179
C   34.67132927  -21.10694687 -14.20662948
C   33.91868445  -20.23896897 -13.20131056
C   34.25006063  -18.73826492 -13.33010180
C   33.83002363  -17.90477763 -12.10641738
O   36.83579355  -21.55528038 -15.16484411
O   34.54697456  -22.48915705 -13.93375267
O   32.54027332  -20.45010501 -13.49792980
O   35.67010241  -18.53074927 -13.45718345
O   32.44461590  -17.69443937 -11.97378508
H   37.35236043  -18.94516705 -14.50549842
H   36.57320158  -20.93245182 -13.18941625
H   34.27263585  -20.85110367 -15.21687672
H   34.15261206  -20.60169918 -12.17216521
H   33.72557654  -18.35599125 -14.23419953
H   34.28635831  -18.36917386 -11.19589178
H   34.30587800  -16.90831385 -12.21978421
H   36.38987060  -22.42919673 -15.14444481
H   31.97431694  -18.54489917 -11.81385444
C   37.00809984  -17.77969568 -19.54500364
C   37.97856612  -18.64949137 -18.73388141
C   37.25556939  -19.32019259 -17.56579051
C   36.47260298  -18.29186449 -16.73234098
C   35.54761535  -17.50055798 -17.67537985
C   34.75389707  -16.36164670 -17.01107488
O   38.56783050  -19.64915375 -19.56537092
O   38.25006952  -20.02011949 -16.83886011
O   35.67968339  -18.95480612 -15.74814936
O   36.37482738  -16.87565480 -18.66647779
H   37.52602971  -17.15117394 -20.29688193
H   38.77069271  -17.98350487 -18.31711558
H   36.50081586  -20.02369448 -17.99189031
H   37.18448815  -17.58602472 -16.24183530
H   34.84358528  -18.20417265 -18.16710587
H   38.98612731  -20.26583174 -18.92429312
H   37.79413497  -20.71635857 -16.29686629
C   34.01521678  -19.76212469 -23.43344309
C   35.23308152  -20.64075734 -23.13065509
C   35.78994913  -20.26544858 -21.76230531
C   35.98224980  -18.75347923 -21.57025132
C   34.80327728  -17.92678136 -22.11312191
C   35.06237747  -16.42278208 -22.25199760
O   34.81996648  -22.00826825 -23.14565041
O   36.98520850  -20.99040503 -21.55910810
O   36.06500890  -18.62678782 -20.14915560
O   34.40837704  -18.39532019 -23.43569963
O   35.41631017  -15.83278743 -21.02814115
H   33.59959406  -19.97256243 -24.44401528
H   36.00560681  -20.45208068 -23.91207184
H   35.00739724  -20.55486385 -21.01976749
H   36.93800117  -18.44199750 -22.05111802
H   33.96119528  -18.08243136 -21.40921879
H   35.90064696  -16.26260510 -22.96650766
H   34.15205502  -15.96205368 -22.70555843
H   35.55509978  -22.49996219 -22.72465068
H   37.44781391  -20.59640167 -20.77386348
H   34.73989423  -16.10365077 -20.35212624
C   29.20721599  -20.24941657 -21.28021455
C   29.84297305  -21.58933484 -21.68805864
C   31.34508203  -21.38823279 -21.78272308
C   31.69194593  -20.21146354 -22.70009436
C   30.86181606  -18.94891596 -22.39170232
C   30.93840124  -17.82150638 -23.43327303
O   29.52232823  -22.59912815 -20.73219959
O   31.94533112  -22.59157561 -22.22041433
O   33.07509122  -20.00753619 -22.42909653
O   29.46759497  -19.29153668 -22.28085596
O   32.05567845  -16.98242088 -23.27758930
H   28.10344224  -20.33857882 -21.20829133
H   29.43713186  -21.86334008 -22.68971433
H   31.69949874  -21.10439018 -20.76296320
H   31.54257080  -20.52128599 -23.76181495
H   31.22762163  -18.54635248 -21.42008180
H   30.86319820  -18.25889969 -24.46043811
H   30.02758489  -17.20411623 -23.28459556
H   30.19843645  -23.30011298 -20.83377018
H   32.90726695  -22.40775943 -22.36333380
H   32.87258148  -17.47182866 -23.54597180
C   31.11829626  -16.22143812 -16.53857409
C   32.44312408  -16.14011428 -16.04148096
N   31.20545270  -16.63626054 -17.87266958
N   33.30378969  -16.49398314 -17.08021075
C   32.56524746  -16.69058937 -18.25637010
H   35.07898741  -15.41718515 -17.49882867
H   35.01105622  -16.29801075 -15.93706135
H   29.28467753  -16.44779399 -18.75154953
H   30.48183643  -17.41137450 -19.66555708
H   33.58214440  -22.72028710 -13.91660602
C   32.69918488  -15.71185124 -14.73433106
C   30.02791167  -15.82282599 -15.75886880
N   33.10114830  -16.83085707 -19.42967339
H   32.39210545  -16.88544180 -20.17370321
C   31.60190592  -15.33893699 -13.93651377
C   30.29147624  -15.36817859 -14.44736351
H   31.77810985  -15.01127645 -12.90311572
H   33.72302283  -15.64777920 -14.34100388
H   29.45760395  -15.02002670 -13.81915924
H   29.00807984  -15.86243094 -16.16195563
*
