137
Generated by autodE on: 2022-03-19. E = -3944.461969 Ha
C    28.24445 -19.22401 -16.17495
C    27.55657 -20.30063 -17.03205
C    28.42564 -20.69094 -18.22282
C    28.85159 -19.44816 -19.02060
C    29.55322 -18.48959 -18.04063
C    30.10440 -17.19055 -18.64851
O    27.26510 -21.46842 -16.26038
O    27.68445 -21.63661 -18.97423
O    29.75956 -19.83861 -20.04106
O    28.59762 -18.14395 -17.01913
H    27.57074 -18.80509 -15.40014
H    26.60682 -19.85964 -17.41668
H    29.36225 -21.15009 -17.82658
H    27.95867 -18.94394 -19.45983
H    30.40879 -19.03306 -17.58337
H    26.99507 -22.12687 -16.94030
H    28.32637 -22.14762 -19.53438
C    31.64809 -20.94356 -12.54386
C    30.87454 -22.09909 -13.17770
C    30.22316 -21.59988 -14.46126
C    29.43533 -20.29201 -14.27963
C    30.08308 -19.28750 -13.29200
C    29.08223 -18.31307 -12.66327
O    31.78082 -23.16598 -13.46722
O    29.44490 -22.65417 -14.99253
O    29.43119 -19.70890 -15.59066
O    30.72884 -19.93001 -12.16056
O    28.32391 -17.61902 -13.63299
H    32.17144 -21.26106 -11.61462
H    30.09133 -22.43630 -12.46038
H    31.06192 -21.33758 -15.14841
H    28.40100 -20.53804 -13.95135
H    30.84924 -18.71845 -13.86171
H    28.37032 -18.88561 -12.03145
H    29.64424 -17.62181 -11.99332
H    31.29879 -23.75099 -14.08827
H    28.70356 -22.25742 -15.52161
H    28.95890 -17.07655 -14.15162
C    36.28566 -19.25313 -14.50570
C    36.14804 -20.75766 -14.20561
C    34.67133 -21.10695 -14.20663
C    33.91868 -20.23897 -13.20131
C    34.25006 -18.73826 -13.33010
C    33.83002 -17.90478 -12.10642
O    36.83579 -21.55528 -15.16484
O    34.54697 -22.48916 -13.93375
O    32.54027 -20.45011 -13.49793
O    35.67010 -18.53075 -13.45718
O    32.44462 -17.69444 -11.97379
H    37.35236 -18.94517 -14.50550
H    36.57320 -20.93245 -13.18942
H    34.27264 -20.85110 -15.21688
H    34.15261 -20.60170 -12.17217
H    33.72558 -18.35599 -14.23420
H    34.28636 -18.36917 -11.19589
H    34.30588 -16.90831 -12.21978
H    36.38987 -22.42920 -15.14444
H    31.97432 -18.54490 -11.81385
C    37.00810 -17.77970 -19.54500
C    37.97857 -18.64949 -18.73388
C    37.25557 -19.32019 -17.56579
C    36.47260 -18.29186 -16.73234
C    35.54762 -17.50056 -17.67538
C    34.75390 -16.36165 -17.01107
O    38.56783 -19.64915 -19.56537
O    38.25007 -20.02012 -16.83886
O    35.67968 -18.95481 -15.74815
O    36.37483 -16.87565 -18.66648
H    37.52603 -17.15117 -20.29688
H    38.77069 -17.98350 -18.31712
H    36.50082 -20.02369 -17.99189
H    37.18449 -17.58602 -16.24184
H    34.84359 -18.20417 -18.16711
H    38.98613 -20.26583 -18.92429
H    37.79413 -20.71636 -16.29687
C    34.01522 -19.76212 -23.43344
C    35.23308 -20.64076 -23.13066
C    35.78995 -20.26545 -21.76231
C    35.98225 -18.75348 -21.57025
C    34.80328 -17.92678 -22.11312
C    35.06238 -16.42278 -22.25200
O    34.81997 -22.00827 -23.14565
O    36.98521 -20.99041 -21.55911
O    36.06501 -18.62679 -20.14916
O    34.40838 -18.39532 -23.43570
O    35.41631 -15.83279 -21.02814
H    33.59959 -19.97256 -24.44402
H    36.00561 -20.45208 -23.91207
H    35.00740 -20.55486 -21.01977
H    36.93800 -18.44200 -22.05112
H    33.96120 -18.08243 -21.40922
H    35.90065 -16.26261 -22.96651
H    34.15206 -15.96205 -22.70556
H    35.55510 -22.49996 -22.72465
H    37.44781 -20.59640 -20.77386
H    34.73989 -16.10365 -20.35213
C    29.20722 -20.24942 -21.28021
C    29.84297 -21.58933 -21.68806
C    31.34508 -21.38823 -21.78272
C    31.69195 -20.21146 -22.70009
C    30.86182 -18.94892 -22.39170
C    30.93840 -17.82151 -23.43327
O    29.52233 -22.59913 -20.73220
O    31.94533 -22.59158 -22.22041
O    33.07509 -20.00754 -22.42910
O    29.46759 -19.29154 -22.28086
O    32.05568 -16.98242 -23.27759
H    28.10344 -20.33858 -21.20829
H    29.43713 -21.86334 -22.68971
H    31.69950 -21.10439 -20.76296
H    31.54257 -20.52129 -23.76181
H    31.22762 -18.54635 -21.42008
H    30.86320 -18.25890 -24.46044
H    30.02758 -17.20412 -23.28460
H    30.19844 -23.30011 -20.83377
H    32.90727 -22.40776 -22.36333
H    32.87258 -17.47183 -23.54597
C    31.11830 -16.22144 -16.53857
C    32.44312 -16.14011 -16.04148
N    31.20545 -16.63626 -17.87267
N    33.30379 -16.49398 -17.08021
C    32.56525 -16.69059 -18.25637
H    35.07899 -15.41719 -17.49883
H    35.01106 -16.29801 -15.93706
H    29.28468 -16.44779 -18.75155
H    30.48184 -17.41137 -19.66556
H    33.58214 -22.72029 -13.91661
C    32.69918 -15.71185 -14.73433
C    30.02791 -15.82283 -15.75887
N    33.10115 -16.83086 -19.42967
H    32.39211 -16.88544 -20.17370
C    31.60191 -15.33894 -13.93651
C    30.29148 -15.36818 -14.44736
H    31.77811 -15.01128 -12.90312
H    33.72302 -15.64778 -14.34100
H    29.45760 -15.02003 -13.81916
H    29.00808 -15.86243 -16.16196
