! Opt BP86 def2-SVP def2/J RIJCOSX D4
%output 
xyzfile=True 
end 
%scf 
maxiter 250 
end
%output
Print[P_Hirshfeld] = 1
end
% maxcore
4000
%pal nprocs 36
end
*xyz 0 1
C   28.19973254  -19.60314459 -16.17064107
C   27.53491819  -20.67189807 -17.05920668
C   28.43942481  -21.02690025 -18.24422827
C   28.84913532  -19.73491735 -18.97918547
C   29.52946932  -18.82320456 -17.94295968
C   30.07809773  -17.51153820 -18.52392377
O   27.28554189  -21.81050120 -16.26986981
O   27.72283112  -21.93143762 -19.04655781
O   29.76445805  -20.02789658 -20.01984628
O   28.58907739  -18.49333978 -16.92836143
H   27.48084501  -19.22990110 -15.43346422
H   26.59133978  -20.26611688 -17.45308157
H   29.35663451  -21.49928890 -17.86072600
H   27.95865888  -19.23319148 -19.38000286
H   30.36331123  -19.38398578 -17.49850246
H   27.01414888  -22.50931003 -16.88162398
H   28.31200603  -22.26706261 -19.74360712
C   31.61446557  -20.57152295 -12.36663185
C   30.77085008  -21.82691334 -12.62837275
C   30.10270773  -21.65720042 -13.98948516
C   29.36556746  -20.31478654 -14.14071106
C   30.09206026  -19.11937976 -13.48363243
C   29.13619189  -17.98840365 -13.05501558
O   31.62466561  -22.94438555 -12.62312380
O   29.22792121  -22.73553281 -14.20124654
O   29.32503951  -20.16047939 -15.55113129
O   30.77341045  -19.45460240 -12.27281029
O   28.24462062  -17.58100780 -14.04742516
H   32.11520318  -20.65267420 -11.39198525
H   30.00652354  -21.91602086 -11.84346828
H   30.90174540  -21.65919783 -14.74908360
H   28.35253656  -20.40944661 -13.72981468
H   30.81781491  -18.74428512 -14.22054244
H   28.52738110  -18.35380006 -12.22376778
H   29.75025656  -17.15063378 -12.69937500
H   31.12128157  -23.68060774 -12.99644413
H   28.62552878  -22.49784516 -14.92749926
H   28.74244175  -17.20800799 -14.78939576
C   36.30275667  -19.48484551 -14.53371968
C   36.12009103  -20.94041467 -14.07776951
C   34.62242691  -21.22803738 -14.04503989
C   33.90252069  -20.21940414 -13.13670606
C   34.30806532  -18.76513041 -13.45341054
C   33.91773108  -17.76260891 -12.34771668
O   36.79082604  -21.80097987 -14.96158819
O   34.43280012  -22.54721121 -13.59856597
O   32.52553525  -20.42828721 -13.40831877
O   35.71575894  -18.62318395 -13.59616968
O   32.60860359  -17.28893637 -12.43305480
H   37.36867529  -19.22402212 -14.52983801
H   36.53232765  -21.04248165 -13.06212236
H   34.22334008  -21.10276050 -15.06365368
H   34.13343626  -20.45853822 -12.08876264
H   33.80650776  -18.48453316 -14.39104500
H   34.12333820  -18.21226297 -11.36600022
H   34.56810003  -16.89178841 -12.46271297
H   36.41628959  -22.68237645 -14.82746543
H   31.98455065  -18.00986025 -12.25171253
C   37.05944865  -17.87518553 -19.47897885
C   38.04012585  -18.78794440 -18.72071700
C   37.28066879  -19.58285737 -17.65526599
C   36.49768267  -18.60494217 -16.75988217
C   35.55795275  -17.77720964 -17.65460478
C   34.74029267  -16.75026172 -16.86657119
O   38.64659182  -19.65187208 -19.65111765
O   38.23321026  -20.34260269 -16.95221616
O   35.73901772  -19.32655995 -15.80410690
O   36.35441101  -17.04958960 -18.59211089
H   37.61199030  -17.19964156 -20.14239768
H   38.79967648  -18.16748639 -18.22243110
H   36.55414154  -20.24031833 -18.15520469
H   37.20286977  -17.92931862 -16.25573031
H   34.87984174  -18.44475525 -18.19913875
H   39.10070202  -20.33068757 -19.13274295
H   37.77322946  -20.90251321 -16.30398728
C   33.91956257  -19.28136033 -23.43045037
C   35.18260145  -20.15396212 -23.40064754
C   35.80436653  -20.01886476 -22.01460977
C   36.02372461  -18.55646753 -21.59046004
C   34.82149166  -17.65118055 -21.93001953
C   35.17783397  -16.15514197 -22.03761410
O   34.80105870  -21.48451484 -23.65344856
O   37.01510387  -20.73223171 -21.98855988
O   36.18547604  -18.69806660 -20.18929826
O   34.25339261  -17.94009485 -23.21498324
O   35.97226256  -15.65714596 -21.00433228
H   33.46115095  -19.31958681 -24.42840136
H   35.88792397  -19.79795157 -24.16505482
H   35.09355775  -20.44523209 -21.28837960
H   36.94001999  -18.16802317 -22.05485654
H   34.07642033  -17.81744537 -21.13849670
H   35.74869679  -16.00734423 -22.95911999
H   34.23701669  -15.59258379 -22.12197241
H   35.55765786  -22.03623125 -23.41291360
H   37.51181056  -20.44709776 -21.20234863
H   35.58098715  -15.88274393 -20.14818134
C   29.22780615  -20.26743505 -21.29546396
C   29.88048276  -21.52558236 -21.88906954
C   31.38302010  -21.27261853 -21.95236590
C   31.68959324  -19.99284628 -22.74557496
C   30.80310903  -18.80811700 -22.31237002
C   30.80242532  -17.62387720 -23.30184681
O   29.57673365  -22.64027223 -21.08943629
O   32.00826855  -22.38663805 -22.53805219
O   33.05372472  -19.75575919 -22.44877800
O   29.44076051  -19.18415917 -22.15489282
O   31.74590858  -16.64240591 -22.99735260
H   28.13903246  -20.39096189 -21.25393067
H   29.49088031  -21.67072059 -22.90805690
H   31.75265107  -21.12146340 -20.92594952
H   31.55164873  -20.19725897 -23.81735012
H   31.19963075  -18.44843499 -21.35239389
H   30.92310795  -17.99727817 -24.32809240
H   29.82244274  -17.14593396 -23.22424018
H   30.21790113  -23.32724054 -21.31747197
H   32.90783726  -22.12809816 -22.79915684
H   32.64057426  -16.99632569 -23.13904292
C   31.14740649  -16.29441442 -16.62465395
C   32.46269922  -16.14354935 -16.15548029
N   31.21316529  -17.03964103 -17.78261135
N   33.30212381  -16.82197772 -17.02420095
C   32.54292960  -17.39776520 -18.02170200
H   35.08923891  -15.75512892 -17.17403413
H   34.94920024  -16.87165524 -15.79950823
H   29.29163966  -16.75497328 -18.49029267
H   30.36631629  -17.67116055 -19.56459430
H   33.49898442  -22.66521204 -13.35222846
C   32.72483453  -15.41731572 -15.01003819
C   30.07671512  -15.72461734 -15.96498005
N   33.01069707  -18.11970165 -18.95894388
H   32.30725362  -18.52389093 -19.56420542
C   31.64493761  -14.86153408 -14.33747099
C   30.34844082  -15.00837257 -14.80473861
H   31.82375217  -14.30548563 -13.43151937
H   33.72715685  -15.28351795 -14.63934011
H   29.53144981  -14.55626341 -14.26348452
H   29.07142353  -15.81946604 -16.34559793
*
