! Freq PBE0 def2-SVP def2/J RIJCOSX D4
%output 
xyzfile=True 
end 
%scf 
maxiter 250 
end
%output
Print[P_Hirshfeld] = 1
end
% maxcore
4000
%pal nprocs 36
end
*xyz 1 1
C   27.99614316  -19.62787286 -15.31573635
C   27.62747816  -20.73216470 -16.33602795
C   28.79052473  -20.99948288 -17.29192303
C   29.16384992  -19.67642832 -17.94455785
C   29.46721399  -18.59352739 -16.90117697
C   29.67700454  -17.23629587 -17.59635600
O   27.19352864  -21.94866284 -15.73737191
O   28.33662650  -21.96116340 -18.21960516
O   30.29254854  -19.84272355 -18.81096191
O   28.33376319  -18.45732894 -16.02576956
H   27.10635892  -19.36412695 -14.70106593
H   26.78947782  -20.30502860 -16.93772879
H   29.66814106  -21.36521829 -16.70422389
H   28.29184736  -19.33297203 -18.54694029
H   30.35245624  -18.86249293 -16.28920980
H   27.15871580  -22.57420962 -16.49587648
H   29.08010887  -22.20065502 -18.83223167
C   31.35102911  -21.39041630 -12.45142183
C   30.53087933  -22.64055404 -12.75227890
C   29.39006157  -22.27596721 -13.69923267
C   28.78515212  -20.87453072 -13.39479608
C   29.22810692  -20.26681365 -12.05722432
C   28.37438225  -20.80812989 -10.90053690
O   31.39497519  -23.62056917 -13.32603764
O   28.44583418  -23.32264167 -13.64749560
O   29.08828007  -19.96208683 -14.47080867
O   30.62253679  -20.43956386 -11.72823006
O   27.04439922  -20.38449337 -11.14453766
H   32.23830202  -21.64107195 -11.83100888
H   30.10938759  -23.01882420 -11.79394071
H   29.85991894  -22.18311967 -14.70537237
H   27.68448630  -20.98745891 -13.30992582
H   29.05069218  -19.17193219 -12.11437771
H   28.45746865  -21.92026703 -10.84994613
H   28.79457407  -20.39607148 -9.95338738 
H   30.82583970  -24.35874615 -13.62199351
H   27.79266035  -23.08418847 -14.34549457
H   26.46101288  -20.79884262 -10.48395780
C   35.39956815  -19.48457325 -15.29324176
C   35.27780426  -20.98808419 -14.98944357
C   33.83468425  -21.45399572 -14.80008641
C   33.13814228  -20.49262263 -13.83307882
C   33.23304619  -19.07729015 -14.39849662
C   32.39176616  -18.02555911 -13.66410996
O   35.93442835  -21.72209627 -16.01748151
O   33.89471744  -22.78524106 -14.34972935
O   31.77634694  -20.86417205 -13.70510009
O   34.62824831  -18.69471988 -14.42973852
O   31.11421995  -17.88639650 -14.25960267
H   36.45165692  -19.16766107 -15.14332313
H   35.78949566  -21.14771747 -14.01033966
H   33.30167382  -21.37304704 -15.78315973
H   33.64423242  -20.52386643 -12.84025521
H   32.83815492  -19.09727791 -15.43387018
H   32.32351779  -18.26167937 -12.57745072
H   32.91023532  -17.04904935 -13.76186291
H   35.77643943  -22.66828335 -15.82010539
H   30.59090382  -18.70826316 -14.11182048
C   36.93331168  -17.30925866 -19.87692251
C   37.73163722  -18.42205455 -19.15559070
C   36.79569489  -19.33085901 -18.35664571
C   35.99981530  -18.44889208 -17.40582322
C   35.26905406  -17.32454924 -18.15108471
C   34.61628118  -16.36638455 -17.13861875
O   38.54874596  -19.19858437 -20.02501791
O   37.61248340  -20.26554890 -17.68623420
O   35.05367042  -19.23023757 -16.66616544
O   36.22617074  -16.56517197 -18.91015275
H   37.63237681  -16.59118881 -20.36119670
H   38.38435785  -17.88619776 -18.42522256
H   36.08117491  -19.82560610 -19.05946773
H   36.71558226  -17.97572872 -16.69528538
H   34.50999573  -17.73212336 -18.85005456
H   38.85236615  -19.93804421 -19.45176664
H   37.03664765  -20.90251571 -17.18812562
C   34.31544318  -19.37547941 -23.25359307
C   35.54274433  -20.28108181 -23.23899210
C   36.52133434  -19.78387190 -22.17741881
C   36.56456494  -18.23070586 -22.08464458
C   35.87549748  -17.50681090 -23.24786167
C   36.81597556  -17.40376195 -24.45808101
O   35.11573505  -21.61679819 -22.97440253
O   37.77557695  -20.36854055 -22.45156572
O   35.99926139  -17.79604198 -20.83052985
O   34.62054274  -18.07644212 -23.67573488
O   37.90937873  -16.59811450 -24.05337700
H   33.54975310  -19.76154844 -23.96047372
H   36.02534836  -20.22782197 -24.24076179
H   36.10250181  -20.12588165 -21.20322238
H   37.62723529  -17.91570016 -22.13712195
H   35.65346488  -16.47116005 -22.91339150
H   37.14282372  -18.42235816 -24.77697281
H   36.23417067  -16.95704005 -25.29789142
H   35.92463090  -22.15330556 -22.85540914
H   38.33475253  -20.09541305 -21.68806511
H   38.57538685  -16.60034909 -24.76389375
C   29.99512332  -19.85028460 -20.21845190
C   30.63872099  -21.07777945 -20.88627398
C   32.14095654  -20.92429947 -21.11924010
C   32.39300331  -19.56495988 -21.77771777
C   31.81933689  -18.47342053 -20.87652199
C   32.18647657  -17.03784617 -21.27444084
O   30.34626098  -22.23485151 -20.11011435
O   32.54483870  -22.02706983 -21.89327483
O   33.78869101  -19.37289661 -21.93042293
O   30.38325011  -18.64398205 -20.81656752
O   33.35165519  -16.60124950 -20.59776983
H   28.89369527  -19.91105955 -20.33235381
H   30.17195754  -21.15914725 -21.89690859
H   32.65707864  -20.90543581 -20.12417656
H   31.88395800  -19.52654143 -22.76876198
H   32.24257342  -18.61181140 -19.86140405
H   32.28550417  -16.94635096 -22.38029551
H   31.35300496  -16.37602107 -20.95919807
H   30.83022896  -22.97455068 -20.53196560
H   33.49892483  -21.91785553 -22.14493351
H   34.13240411  -17.10202644 -20.93061122
C   31.13389105  -15.22122291 -17.20371913
C   32.51744889  -14.97509211 -17.08740225
N   30.97966746  -16.60096015 -17.39723262
N   33.16555427  -16.20838094 -17.24120750
C   32.21878695  -17.17710412 -17.42317921
H   35.05430655  -15.36926872 -17.32556820
H   34.86259853  -16.66655344 -16.09794828
H   28.92479790  -16.54927127 -17.16794898
H   29.49011884  -17.31999245 -18.68800739
H   32.97879065  -23.09665678 -14.12726123
C   33.01649915  -13.68731412 -16.86331606
C   30.19559070  -14.18688623 -17.11847759
N   32.46506770  -18.48237869 -17.59945308
H   31.72856385  -19.09975321 -17.98562201
C   32.07710768  -12.64706013 -16.77314944
C   30.69338312  -12.89214983 -16.89785364
H   32.43078069  -11.62006542 -16.60175594
H   34.09225134  -13.48876235 -16.76212811
H   29.98671897  -12.05316309 -16.82093075
H   29.11678041  -14.36916312 -17.21744688
H   33.39302361  -18.87187874 -17.35713142
*
