! Opt BP86 def2-SVP def2/J RIJCOSX D4
%output 
xyzfile=True 
end 
%scf 
maxiter 250 
end
%output
Print[P_Hirshfeld] = 1
end
% maxcore
4000
%pal nprocs 36
end
*xyz 1 1
C   28.02787246  -19.63035853 -15.44499796
C   27.62394694  -20.79853824 -16.37350460
C   28.80554305  -21.14859201 -17.28912582
C   29.16945666  -19.87213897 -18.05732936
C   29.49364848  -18.73988628 -17.06419649
C   29.77989998  -17.43638256 -17.82795587
O   27.19907007  -21.91239839 -15.63624569
O   28.39827385  -22.18747617 -18.13550387
O   30.26862891  -20.11430608 -18.92642163
O   28.37447020  -18.51960347 -16.21691830
H   27.15578857  -19.31661771 -14.85403444
H   26.79792342  -20.43540888 -17.00567958
H   29.66886890  -21.45781802 -16.67819027
H   28.29214357  -19.56675752 -18.64261123
H   30.34015915  -19.02404510 -16.43052345
H   27.09906543  -22.63345786 -16.27567908
H   29.07855474  -22.33741948 -18.81403082
C   31.29448178  -21.19347527 -12.40051761
C   30.39371569  -22.42228272 -12.50769496
C   29.26394608  -22.13114424 -13.50092444
C   28.75351151  -20.67135700 -13.41016241
C   29.26027727  -19.91222208 -12.17678752
C   28.39133046  -20.25972314 -10.95532268
O   31.19812107  -23.49128768 -12.94319356
O   28.25047999  -23.06785350 -13.25688958
O   29.10034538  -19.95382131 -14.59263821
O   30.64205173  -20.08164033 -11.87819790
O   27.10606695  -19.74485072 -11.20942269
H   32.12325560  -21.40618823 -11.70959584
H   29.96546517  -22.64450733 -11.52199381
H   29.68225803  -22.26063333 -14.50997379
H   27.66201608  -20.69939775 -13.31534469
H   29.12471781  -18.83897754 -12.36469747
H   28.35003780  -21.34574618 -10.80599127
H   28.84446997  -19.79386290 -10.07181512
H   30.62564236  -24.26024179 -13.05991120
H   27.54975410  -22.91931063 -13.90845532
H   26.55004316  -19.88747635 -10.43554424
C   35.47915572  -19.69744812 -15.24274916
C   35.32763500  -21.18698166 -14.87996485
C   33.85939394  -21.60080340 -14.71982807
C   33.16411490  -20.59008573 -13.79313884
C   33.32839781  -19.19880544 -14.41175320
C   32.52284197  -18.09595604 -13.70536624
O   35.97560495  -21.93430385 -15.87694328
O   33.84313903  -22.90379026 -14.20779770
O   31.80103301  -20.93889549 -13.69022394
O   34.70951768  -18.85361605 -14.44016505
O   31.30688714  -17.87910584 -14.37089678
H   36.51960004  -19.40610913 -15.05053791
H   35.81834236  -21.34246962 -13.90694811
H   33.36070050  -21.57035095 -15.70368650
H   33.64828411  -20.60972761 -12.80796400
H   32.94690024  -19.25611480 -15.43816408
H   32.36452041  -18.34795422 -12.65242164
H   33.08691356  -17.16172035 -13.76455765
H   35.80064725  -22.86626206 -15.68787546
H   30.70893695  -18.61975248 -14.18243345
C   36.92139395  -17.36211421 -19.73586956
C   37.76262656  -18.50451079 -19.12153661
C   36.83359687  -19.47931346 -18.38393479
C   36.07080469  -18.66349847 -17.33268239
C   35.31150863  -17.51287991 -18.02040383
C   34.60081214  -16.64557290 -16.96830200
O   38.52078348  -19.16124031 -20.10089205
O   37.62972699  -20.48069263 -17.81402465
O   35.17646433  -19.50028772 -16.61007011
O   36.23384482  -16.69153971 -18.72239246
H   37.59310741  -16.61427096 -20.18041885
H   38.43431182  -18.04524390 -18.37871231
H   36.11108794  -19.91179512 -19.09472351
H   36.80472745  -18.22165133 -16.64598197
H   34.59982206  -17.91490604 -18.74930907
H   38.90565348  -19.93639093 -19.66518314
H   37.08355974  -21.03646343 -17.23227581
C   34.28788115  -19.14339773 -23.23381712
C   35.57353473  -19.94933006 -23.40900565
C   36.57376529  -19.54121940 -22.32252619
C   36.52108402  -18.02592927 -22.00552886
C   35.71414454  -17.20696368 -23.02147126
C   36.58482482  -16.89096412 -24.25017112
O   35.22928434  -21.30954259 -23.30594268
O   37.84181213  -19.95345383 -22.75374641
O   35.99792578  -17.81620795 -20.69600416
O   34.47025059  -17.77659035 -23.41606084
O   37.60949051  -16.03047056 -23.81321974
H   33.55631538  -19.45226047 -23.99470621
H   36.00104854  -19.73824168 -24.39742059
H   36.28192689  -20.06958376 -21.40289353
H   37.54362982  -17.63403622 -22.05067363
H   35.46686207  -16.24415474 -22.55514628
H   37.00704096  -17.81094389 -24.67289047
H   35.94854182  -16.40997589 -25.00282183
H   36.04456208  -21.82359022 -23.36750597
H   38.47455412  -19.73975139 -22.05265054
H   38.13755168  -15.75802928 -24.57149426
C   29.99139528  -20.04493283 -20.31120803
C   30.65118064  -21.23122212 -21.03931829
C   32.16054725  -21.03277796 -21.22563936
C   32.39979140  -19.63627195 -21.82293302
C   31.77601122  -18.60891542 -20.87373651
C   32.09576531  -17.14741049 -21.22844015
O   30.36295366  -22.39268791 -20.30450515
O   32.62090146  -22.06208686 -22.05554969
O   33.79016069  -19.43262783 -21.94786360
O   30.36630304  -18.80339723 -20.82822860
O   33.18704890  -16.69056341 -20.47436744
H   28.90779584  -20.10799731 -20.47331998
H   30.20401740  -21.29392358 -22.04335165
H   32.66057342  -21.08131015 -20.24315532
H   31.90617749  -19.57233237 -22.80159682
H   32.19994582  -18.79002519 -19.87875137
H   32.27771988  -17.04225330 -22.30220661
H   31.23916538  -16.52750224 -20.95230122
H   30.85143999  -23.11651654 -20.71949696
H   33.50070904  -21.82868019 -22.39915679
H   33.99988038  -17.08987653 -20.82354131
C   31.18945197  -15.43565046 -17.30791119
C   32.55802162  -15.20231451 -17.11606753
N   31.03644692  -16.80141651 -17.50678459
N   33.19306455  -16.43328628 -17.20677442
C   32.25532252  -17.36903539 -17.44628536
H   35.08854575  -15.67064732 -16.98136728
H   34.72822525  -17.08996922 -15.97395172
H   28.98334712  -16.73901877 -17.56661717
H   29.74432996  -17.62342154 -18.90801389
H   32.95621717  -23.10137150 -13.86052884
C   33.04461943  -13.92598359 -16.89033595
C   30.27332497  -14.39788200 -17.28304908
N   32.50179342  -18.67178468 -17.60255703
H   31.76924198  -19.29424951 -17.92125097
C   32.12459180  -12.89331865 -16.86676734
C   30.76547854  -13.12498667 -17.05703564
H   32.46809860  -11.88544785 -16.69716055
H   34.09410171  -13.73103615 -16.74452213
H   30.08064078  -12.29265103 -17.02966796
H   29.21857549  -14.56159302 -17.42931791
H   33.42925447  -19.03908661 -17.42750643
*
