! Freq PBE0 def2-SVP def2/J RIJCOSX D4
%output 
xyzfile=True 
end 
%scf 
maxiter 250 
end
%output
Print[P_Hirshfeld] = 1
end
% maxcore
4000
%pal nprocs 8
end
*xyz 0 1
C    0.53468883  -1.12076656   0.05351037 
C   -0.79097668  -1.16153101   0.51469197 
C   -1.54775211   0.01566093   0.52507901 
C   -1.00421578   1.23032566   0.08339644 
C    0.31863783   1.26754214  -0.37600970 
C    1.09840231   0.09175406  -0.39438417 
O    2.38131632   0.18875858  -0.85255456 
F   -2.82417207  -0.01875954   0.96862154 
H    1.13712693  -2.04423443   0.04250557 
H   -1.24283940  -2.10004521   0.86670448 
H   -1.62483933   2.13785146   0.10400999 
H    0.76929002   2.20684748  -0.72763225 
H    2.79523311  -0.69330355  -0.80793869 
*
