12
Coordinates from ORCA-job p-fluorophenolate_opt_orca E -405.857154599539
  C       1.022657      0.936396     -0.007076
  C      -0.284752      1.357576     -0.008452
  C      -1.301896      0.419924     -0.001355
  C      -1.024153     -0.935356      0.007107
  C       0.282877     -1.357589      0.008489
  C       1.392150     -0.448976      0.001489
  O       2.589822     -0.835059      0.002735
  F      -2.626094      0.846862     -0.002750
  H       1.821783      1.668685     -0.012626
  H      -0.533213      2.413331     -0.015010
  H      -1.842696     -1.647066      0.012541
  H       0.503414     -2.418728      0.015107
12
Coordinates from ORCA-job p-fluorophenolate_opt_orca E -405.861940876416
  C       1.035338      0.945789     -0.007154
  C      -0.294864      1.372445     -0.008537
  C      -1.327047      0.427997     -0.001370
  C      -1.041067     -0.941554      0.007164
  C       0.287706     -1.372552      0.008576
  C       1.421273     -0.458361      0.001504
  O       2.629683     -0.847988      0.002788
  F      -2.650306      0.854693     -0.002774
  H       1.850130      1.688951     -0.012782
  H      -0.550091      2.446038     -0.015207
  H      -1.875487     -1.663727      0.012679
  H       0.514630     -2.451732      0.015313
12
Coordinates from ORCA-job p-fluorophenolate_opt_orca E -405.862163245894
  C       1.037384      0.947361     -0.007164
  C      -0.297632      1.375232     -0.008550
  C      -1.334692      0.430434     -0.001369
  C      -1.044965     -0.942235      0.007173
  C       0.288462     -1.374983      0.008592
  C       1.430223     -0.461244      0.001529
  O       2.638141     -0.850740      0.002786
  F      -2.654221      0.855989     -0.002782
  H       1.854792      1.689873     -0.012796
  H      -0.554330      2.449820     -0.015233
  H      -1.881166     -1.664335      0.012683
  H       0.517903     -2.455171      0.015330
12
Coordinates from ORCA-job p-fluorophenolate_opt_orca E -405.862188046635
  C       1.037159      0.947407     -0.007168
  C      -0.298244      1.375269     -0.008549
  C      -1.337078      0.431185     -0.001373
  C      -1.045502     -0.941938      0.007171
  C       0.288260     -1.374867      0.008586
  C       1.432986     -0.462134      0.001504
  O       2.639414     -0.851159      0.002804
  F      -2.654436      0.856098     -0.002782
  H       1.855702      1.688799     -0.012784
  H      -0.555554      2.449675     -0.015226
  H      -1.882098     -1.663524      0.012684
  H       0.519291     -2.454810      0.015332
12
Coordinates from ORCA-job p-fluorophenolate_opt_orca E -405.862193195801
  C       1.036608      0.947237     -0.007159
  C      -0.298242      1.374811     -0.008544
  C      -1.337843      0.431419     -0.001367
  C      -1.045248     -0.941589      0.007171
  C       0.287916     -1.374394      0.008591
  C       1.433737     -0.462375      0.001554
  O       2.639249     -0.851110      0.002772
  F      -2.654317      0.856093     -0.002787
  H       1.855927      1.687724     -0.012786
  H      -0.555941      2.449057     -0.015232
  H      -1.882064     -1.662819      0.012669
  H       0.520117     -2.454054      0.015318
12
Coordinates from ORCA-job p-fluorophenolate_opt_orca E -405.862193845293
  C       1.036352      0.947181     -0.007171
  C      -0.298131      1.374568     -0.008546
  C      -1.337890      0.431429     -0.001379
  C      -1.045023     -0.941465      0.007166
  C       0.287741     -1.374194      0.008577
  C       1.433625     -0.462339      0.001468
  O       2.639002     -0.851032      0.002826
  F      -2.654345      0.856116     -0.002780
  H       1.856063      1.687226     -0.012767
  H      -0.556037      2.448779     -0.015211
  H      -1.881983     -1.662549      0.012686
  H       0.520524     -2.453722      0.015331
