12
Generated by autodE on: 2022-03-19. E = -405.862194 Ha
C     1.03635   0.94718  -0.00717
C    -0.29813   1.37457  -0.00855
C    -1.33789   0.43143  -0.00138
C    -1.04502  -0.94146   0.00717
C     0.28774  -1.37419   0.00858
C     1.43363  -0.46234   0.00147
O     2.63900  -0.85103   0.00283
F    -2.65434   0.85612  -0.00278
H     1.85606   1.68723  -0.01277
H    -0.55604   2.44878  -0.01521
H    -1.88198  -1.66255   0.01269
H     0.52052  -2.45372   0.01533
