13
Generated by autodE on: 2022-03-19. E = -24.183333 Ha
C     0.52601  -1.10499   0.05425
C    -0.77963  -1.14834   0.50845
C    -1.52225   0.01663   0.51595
C    -0.99375   1.21986   0.08272
C     0.30985   1.25567  -0.36975
C     1.07700   0.09330  -0.38710
O     2.35388   0.17495  -0.84427
F    -2.79923  -0.02074   0.95827
H     1.12079  -2.00839   0.04183
H    -1.21929  -2.07084   0.85236
H    -1.60133   2.11030   0.10249
H     0.75339   2.17529  -0.71475
H     2.77445  -0.69259  -0.80045
