13
Coordinates from ORCA-job p-fluorophenol_opt_orca E -406.426773208007
  C       0.526014     -1.104990      0.054246
  C      -0.779629     -1.148337      0.508448
  C      -1.522254      0.016628      0.515951
  C      -0.993752      1.219857      0.082718
  C       0.309849      1.255668     -0.369745
  C       1.077004      0.093300     -0.387098
  O       2.353884      0.174953     -0.844271
  F      -2.799225     -0.020740      0.958269
  H       1.120785     -2.008391      0.041833
  H      -1.219291     -2.070842      0.852357
  H      -1.601326      2.110298      0.102492
  H       0.753393      2.175291     -0.714754
  H       2.774448     -0.692593     -0.800447
13
Coordinates from ORCA-job p-fluorophenol_opt_orca E -406.430145537949
  C       0.532169     -1.117653      0.053645
  C      -0.789990     -1.159823      0.514060
  C      -1.541981      0.016019      0.522873
  C      -1.003645      1.229317      0.083576
  C       0.316309      1.266128     -0.374851
  C       1.092793      0.092845     -0.393267
  O       2.375254      0.182889     -0.851475
  F      -2.821227     -0.019399      0.967215
  H       1.136497     -2.038925      0.041845
  H      -1.239696     -2.098661      0.865519
  H      -1.622804      2.136815      0.104143
  H       0.768024      2.204365     -0.726231
  H       2.798196     -0.693819     -0.807053
13
Coordinates from ORCA-job p-fluorophenol_opt_orca E -406.430243693971
  C       0.533776     -1.120621      0.053515
  C      -0.791647     -1.162048      0.515020
  C      -1.546447      0.015806      0.524593
  C      -1.004839      1.230705      0.083550
  C       0.318211      1.267740     -0.376003
  C       1.096986      0.092173     -0.394429
  O       2.379673      0.186574     -0.852752
  F      -2.824485     -0.018766      0.968752
  H       1.137672     -2.043402      0.041930
  H      -1.242727     -2.101098      0.867029
  H      -1.624793      2.138827      0.104131
  H       0.769822      2.206923     -0.727698
  H       2.798699     -0.692713     -0.807637
13
Coordinates from ORCA-job p-fluorophenol_opt_orca E -406.430251910479
  C       0.534306     -1.121057      0.053490
  C      -0.791529     -1.162097      0.514984
  C      -1.547442      0.015729      0.524987
  C      -1.004660      1.230651      0.083480
  C       0.318622      1.267781     -0.376148
  C       1.098048      0.091859     -0.394544
  O       2.380692      0.188067     -0.852833
  F      -2.824478     -0.018634      0.968834
  H       1.137504     -2.044149      0.042094
  H      -1.243048     -2.100823      0.867009
  H      -1.624876      2.138511      0.104052
  H       0.769762      2.206984     -0.727822
  H       2.797000     -0.692723     -0.807585
13
Coordinates from ORCA-job p-fluorophenol_opt_orca E -406.430253710745
  C       0.534586     -1.120933      0.053492
  C      -0.791166     -1.161748      0.514795
  C      -1.547738      0.015684      0.525094
  C      -1.004351      1.230425      0.083420
  C       0.318675      1.267614     -0.376081
  C       1.098384      0.091733     -0.394463
  O       2.381153      0.188708     -0.852692
  F      -2.824225     -0.018680      0.968713
  H       1.137245     -2.044262      0.042323
  H      -1.242937     -2.100290      0.866806
  H      -1.624818      2.138045      0.104008
  H       0.769451      2.206860     -0.727720
  H       2.795641     -0.693055     -0.807695
13
Coordinates from ORCA-job p-fluorophenol_opt_orca E -406.430253918091
  C       0.534689     -1.120767      0.053510
  C      -0.790977     -1.161531      0.514692
  C      -1.547752      0.015661      0.525079
  C      -1.004216      1.230326      0.083396
  C       0.318638      1.267542     -0.376010
  C       1.098402      0.091754     -0.394384
  O       2.381316      0.188759     -0.852555
  F      -2.824172     -0.018760      0.968622
  H       1.137127     -2.044234      0.042506
  H      -1.242839     -2.100045      0.866704
  H      -1.624839      2.137851      0.104010
  H       0.769290      2.206847     -0.727632
  H       2.795233     -0.693304     -0.807939
