12
 energy: -23.887734472101 gnorm: 0.000261619776 xtb: 6.4.1 (bd6e46d)
C         1.02265695072775    0.93639607499304   -0.00707640708658
C        -0.28475183536013    1.35757584218859   -0.00845156072927
C        -1.30189577030411    0.41992426553043   -0.00135462559669
C        -1.02415322216721   -0.93535552204266    0.00710695680404
C         0.28287742447479   -1.35758917082376    0.00848921906371
C         1.39215047745416   -0.44897591665244    0.00148910964140
O         2.58982208943002   -0.83505881466670    0.00273522650448
F        -2.62609355245044    0.84686212245962   -0.00274956676971
H         1.82178302853580    1.66868474908092   -0.01262589266177
H        -0.53321296934777    2.41333065483849   -0.01500991488273
H        -1.84269632515473   -1.64706590376781    0.01254053517380
H         0.50341370416187   -2.41872838113771    0.01510692053933
